@<TRIPOS>MOLECULE
MOL
  140   147     1     0     0
SMALL
No Charge or Current Charge


@<TRIPOS>ATOM
      1 C1           1.0700    -5.4730     2.7850 c3         1 MOL       0.000000
      2 H1           1.5400    -4.9520     3.6250 hc         1 MOL       0.000000
      3 H2          -0.0120    -5.3200     2.8310 hc         1 MOL       0.000000
      4 H66          1.2760    -6.5440     2.8910 hc         1 MOL       0.000000
      5 C2           1.6250    -4.9610     1.4660 c3         1 MOL       0.000000
      6 H3           1.5090    -3.8710     1.4020 h1         1 MOL       0.000000
      7 O1           3.0320    -5.2860     1.4630 os         1 MOL       0.000000
      8 C3           3.7520    -4.9030     0.3120 c3         1 MOL       0.000000
      9 H4           4.7780    -5.2500     0.4780 h2         1 MOL       0.000000
     10 O26          3.7320    -3.5000     0.1240 os         1 MOL       0.000000
     11 C4           3.1470    -5.5680    -0.9320 c3         1 MOL       0.000000
     12 O3           3.8240    -5.2800    -2.1390 oh         1 MOL       0.000000
     13 H5           4.1270    -4.3450    -2.1370 ho         1 MOL       0.000000
     14 H6           3.2150    -6.6540    -0.7940 h1         1 MOL       0.000000
     15 C5           1.6680    -5.1910    -1.0370 c3         1 MOL       0.000000
     16 H7           1.5840    -4.1020    -1.1690 h1         1 MOL       0.000000
     17 O4           1.0720    -5.8610    -2.1440 oh         1 MOL       0.000000
     18 H8           1.7110    -5.7760    -2.8750 ho         1 MOL       0.000000
     19 C6           0.9300    -5.5810     0.2360 c3         1 MOL       0.000000
     20 H9           0.9280    -6.6770     0.3270 h1         1 MOL       0.000000
     21 O2          -0.4110    -5.0990     0.1230 os         1 MOL       0.000000
     22 C9          -1.4950    -5.9910     0.3130 c3         1 MOL       0.000000
     23 C10         -2.3920    -5.9330    -0.9300 c3         1 MOL       0.000000
     24 C11         -3.0200    -4.5420    -1.0360 c3         1 MOL       0.000000
     25 H16         -2.2220    -3.7980    -1.1700 h1         1 MOL       0.000000
     26 O8          -3.9170    -4.4960    -2.1430 oh         1 MOL       0.000000
     27 H17         -3.4520    -4.9420    -2.8750 ho         1 MOL       0.000000
     28 O7          -1.7450    -6.2840    -2.1370 oh         1 MOL       0.000000
     29 H14         -0.8260    -5.9370    -2.1360 ho         1 MOL       0.000000
     30 H15         -3.1990    -6.6630    -0.7920 h1         1 MOL       0.000000
     31 H13         -1.1260    -7.0080     0.4800 h2         1 MOL       0.000000
     32 O5          -2.2420    -5.6650     1.4650 os         1 MOL       0.000000
     33 C8          -2.8670    -4.3630     1.4660 c3         1 MOL       0.000000
     34 C7          -3.6140    -4.2480     2.7850 c3         1 MOL       0.000000
     35 H10         -2.9130    -4.2860     3.6250 hc         1 MOL       0.000000
     36 H11         -4.1720    -3.3090     2.8290 hc         1 MOL       0.000000
     37 H70         -4.3200    -5.0800     2.8930 hc         1 MOL       0.000000
     38 H12         -2.0880    -3.5920     1.4020 h1         1 MOL       0.000000
     39 C12         -3.7850    -4.2080     0.2360 c3         1 MOL       0.000000
     40 H18         -4.6430    -4.8890     0.3280 h1         1 MOL       0.000000
     41 O6          -4.2440    -2.8590     0.1230 os         1 MOL       0.000000
     42 C15         -5.6170    -2.5670     0.3110 c3         1 MOL       0.000000
     43 C16         -6.1300    -1.8300    -0.9330 c3         1 MOL       0.000000
     44 C17         -5.4330    -0.4720    -1.0380 c3         1 MOL       0.000000
     45 H25         -4.3530    -0.6330    -1.1700 h1         1 MOL       0.000000
     46 O12         -5.9540     0.2590    -2.1450 oh         1 MOL       0.000000
     47 H26         -6.0140    -0.3830    -2.8760 ho         1 MOL       0.000000
     48 O11         -6.0000    -2.5540    -2.1400 oh         1 MOL       0.000000
     49 H23         -5.1560    -3.0570    -2.1390 ho         1 MOL       0.000000
     50 H24         -7.2040    -1.6550    -0.7950 h1         1 MOL       0.000000
     51 H22         -6.1820    -3.4900     0.4770 h2         1 MOL       0.000000
     52 O9          -5.8290    -1.7800     1.4620 os         1 MOL       0.000000
     53 C14         -5.2000    -0.4800     1.4650 c3         1 MOL       0.000000
     54 C13         -5.5790     0.1750     2.7840 c3         1 MOL       0.000000
     55 H19         -5.1720    -0.3970     3.6240 hc         1 MOL       0.000000
     56 H20         -5.1940     1.1970     2.8280 hc         1 MOL       0.000000
     57 H65         -6.6690     0.2060     2.8900 hc         1 MOL       0.000000
     58 H21         -4.1120    -0.6080     1.4020 h1         1 MOL       0.000000
     59 C18         -5.6500     0.3350     0.2350 c3         1 MOL       0.000000
     60 H27         -6.7180     0.5810     0.3260 h1         1 MOL       0.000000
     61 O10         -4.8810     1.5350     0.1220 os         1 MOL       0.000000
     62 C21         -5.5090     2.7900     0.3110 c3         1 MOL       0.000000
     63 C22         -5.2520     3.6510    -0.9340 c3         1 MOL       0.000000
     64 C23         -3.7570     3.9550    -1.0370 c3         1 MOL       0.000000
     65 H34         -3.2090     3.0100    -1.1700 h1         1 MOL       0.000000
     66 O16         -3.5110     4.8190    -2.1440 oh         1 MOL       0.000000
     67 H35         -4.0480     4.4640    -2.8760 ho         1 MOL       0.000000
     68 O15         -5.7360     3.0970    -2.1410 oh         1 MOL       0.000000
     69 H32         -5.6040     2.1230    -2.1390 ho         1 MOL       0.000000
     70 H33         -5.7860     4.6000    -0.7970 h1         1 MOL       0.000000
     71 H31         -6.5840     2.6560     0.4760 h2         1 MOL       0.000000
     72 O13         -5.0270     3.4460     1.4620 os         1 MOL       0.000000
     73 C20         -3.6190     3.7650     1.4650 c3         1 MOL       0.000000
     74 C19         -3.3410     4.4680     2.7850 c3         1 MOL       0.000000
     75 H28         -3.5340     3.7920     3.6240 hc         1 MOL       0.000000
     76 H29         -2.3010     4.8030     2.8290 hc         1 MOL       0.000000
     77 H64         -3.9950     5.3400     2.8930 hc         1 MOL       0.000000
     78 H30         -3.0400     2.8340     1.4010 h1         1 MOL       0.000000
     79 C24         -3.2620     4.6260     0.2360 c3         1 MOL       0.000000
     80 H36         -3.7350     5.6140     0.3270 h1         1 MOL       0.000000
     81 O14         -1.8440     4.7730     0.1240 os         1 MOL       0.000000
     82 C27         -1.2530     6.0460     0.3160 c3         1 MOL       0.000000
     83 C28         -0.4190     6.3860    -0.9270 c3         1 MOL       0.000000
     84 C29          0.7500     5.4050    -1.0350 c3         1 MOL       0.000000
     85 H43          0.3530     4.3880    -1.1700 h1         1 MOL       0.000000
     86 O20          1.5770     5.7550    -2.1410 oh         1 MOL       0.000000
     87 H44          0.9640     5.9570    -2.8710 ho         1 MOL       0.000000
     88 O19         -1.1550     6.4230    -2.1330 oh         1 MOL       0.000000
     89 H41         -1.8320     5.7110    -2.1340 ho         1 MOL       0.000000
     90 H42         -0.0100     7.3940    -0.7870 h1         1 MOL       0.000000
     91 H40         -2.0260     6.8030     0.4840 h2         1 MOL       0.000000
     92 O17         -0.4390     6.0730     1.4680 os         1 MOL       0.000000
     93 C26          0.6890     5.1710     1.4670 c3         1 MOL       0.000000
     94 C25          1.4120     5.3890     2.7870 c3         1 MOL       0.000000
     95 H37          0.7640     5.1150     3.6260 hc         1 MOL       0.000000
     96 H38          2.3240     4.7870     2.8280 hc         1 MOL       0.000000
     97 H69          1.6840     6.4450     2.8980 hc         1 MOL       0.000000
     98 H39          0.3230     4.1380     1.4000 h1         1 MOL       0.000000
     99 C30          1.5840     5.4330     0.2380 c3         1 MOL       0.000000
    100 H45          2.0610     6.4190     0.3320 h1         1 MOL       0.000000
    101 O18          2.5830     4.4170     0.1210 os         1 MOL       0.000000
    102 C33          3.9470     4.7490     0.3100 c3         1 MOL       0.000000
    103 C34          4.7300     4.3070    -0.9340 c3         1 MOL       0.000000
    104 C35          4.6910     2.7810    -1.0380 c3         1 MOL       0.000000
    105 H52          3.6490     2.4570    -1.1710 h1         1 MOL       0.000000
    106 O24          5.4780     2.3500    -2.1460 oh         1 MOL       0.000000
    107 H53          5.2530     2.9530    -2.8770 ho         1 MOL       0.000000
    108 O23          4.2980     4.9020    -2.1410 oh         1 MOL       0.000000
    109 H50          3.3200     4.9900    -2.1390 ho         1 MOL       0.000000
    110 H51          5.7730     4.6150    -0.7960 h1         1 MOL       0.000000
    111 H49          4.0570     5.8260     0.4750 h2         1 MOL       0.000000
    112 O21          4.4790     4.1320     1.4610 os         1 MOL       0.000000
    113 C32          4.4770     2.6880     1.4640 c3         1 MOL       0.000000
    114 C31          5.1000     2.2620     2.7840 c3         1 MOL       0.000000
    115 H46          4.4870     2.6050     3.6230 hc         1 MOL       0.000000
    116 H47          5.1920     1.1740     2.8300 hc         1 MOL       0.000000
    117 H68          6.0980     2.7030     2.8890 hc         1 MOL       0.000000
    118 H48          3.4400     2.3310     1.4000 h1         1 MOL       0.000000
    119 C36          5.2370     2.1490     0.2340 c3         1 MOL       0.000000
    120 H54          6.3050     2.3920     0.3260 h1         1 MOL       0.000000
    121 O22          5.0650     0.7340     0.1210 os         1 MOL       0.000000
    122 C39          6.1750    -0.1240     0.3120 c3         1 MOL       0.000000
    123 H58          7.0850     0.4620     0.4780 h2         1 MOL       0.000000
    124 O25          6.0230    -0.9240     1.4640 os         1 MOL       0.000000
    125 C38          4.8920    -1.8210     1.4660 c3         1 MOL       0.000000
    126 C37          4.9450    -2.5730     2.7870 c3         1 MOL       0.000000
    127 H55          4.8260    -1.8800     3.6250 hc         1 MOL       0.000000
    128 H56          4.1520    -3.3260     2.8310 hc         1 MOL       0.000000
    129 H67          5.9120    -3.0770     2.8960 hc         1 MOL       0.000000
    130 H57          3.9680    -1.2330     1.4000 h1         1 MOL       0.000000
    131 C42          4.9460    -2.7530     0.2380 c3         1 MOL       0.000000
    132 H63          5.8000    -3.4380     0.3320 h1         1 MOL       0.000000
    133 C41          5.1030    -1.9350    -1.0360 c3         1 MOL       0.000000
    134 H61          4.2000    -1.3220    -1.1720 h1         1 MOL       0.000000
    135 O28          5.2590    -2.8210    -2.1410 oh         1 MOL       0.000000
    136 H62          5.5940    -2.2700    -2.8720 ho         1 MOL       0.000000
    137 C40          6.3190    -1.0130    -0.9310 c3         1 MOL       0.000000
    138 H60          7.2120    -1.6360    -0.7920 h1         1 MOL       0.000000
    139 O27          6.5170    -0.3040    -2.1380 oh         1 MOL       0.000000
    140 H59          5.9720     0.5130    -2.1380 ho         1 MOL       0.000000
@<TRIPOS>BOND
     1     1     2 1   
     2     1     3 1   
     3     1     4 1   
     4     1     5 1   
     5     5     6 1   
     6     5     7 1   
     7     5    19 1   
     8     7     8 1   
     9     8     9 1   
    10     8    10 1   
    11     8    11 1   
    12    10   131 1   
    13    11    12 1   
    14    11    14 1   
    15    11    15 1   
    16    12    13 1   
    17    15    16 1   
    18    15    17 1   
    19    15    19 1   
    20    17    18 1   
    21    19    20 1   
    22    19    21 1   
    23    21    22 1   
    24    22    23 1   
    25    22    31 1   
    26    22    32 1   
    27    23    24 1   
    28    23    28 1   
    29    23    30 1   
    30    24    25 1   
    31    24    26 1   
    32    24    39 1   
    33    26    27 1   
    34    28    29 1   
    35    32    33 1   
    36    33    34 1   
    37    33    38 1   
    38    33    39 1   
    39    34    35 1   
    40    34    36 1   
    41    34    37 1   
    42    39    40 1   
    43    39    41 1   
    44    41    42 1   
    45    42    43 1   
    46    42    51 1   
    47    42    52 1   
    48    43    44 1   
    49    43    48 1   
    50    43    50 1   
    51    44    45 1   
    52    44    46 1   
    53    44    59 1   
    54    46    47 1   
    55    48    49 1   
    56    52    53 1   
    57    53    54 1   
    58    53    58 1   
    59    53    59 1   
    60    54    55 1   
    61    54    56 1   
    62    54    57 1   
    63    59    60 1   
    64    59    61 1   
    65    61    62 1   
    66    62    63 1   
    67    62    71 1   
    68    62    72 1   
    69    63    64 1   
    70    63    68 1   
    71    63    70 1   
    72    64    65 1   
    73    64    66 1   
    74    64    79 1   
    75    66    67 1   
    76    68    69 1   
    77    72    73 1   
    78    73    74 1   
    79    73    78 1   
    80    73    79 1   
    81    74    75 1   
    82    74    76 1   
    83    74    77 1   
    84    79    80 1   
    85    79    81 1   
    86    81    82 1   
    87    82    83 1   
    88    82    91 1   
    89    82    92 1   
    90    83    84 1   
    91    83    88 1   
    92    83    90 1   
    93    84    85 1   
    94    84    86 1   
    95    84    99 1   
    96    86    87 1   
    97    88    89 1   
    98    92    93 1   
    99    93    94 1   
   100    93    98 1   
   101    93    99 1   
   102    94    95 1   
   103    94    96 1   
   104    94    97 1   
   105    99   100 1   
   106    99   101 1   
   107   101   102 1   
   108   102   103 1   
   109   102   111 1   
   110   102   112 1   
   111   103   104 1   
   112   103   108 1   
   113   103   110 1   
   114   104   105 1   
   115   104   106 1   
   116   104   119 1   
   117   106   107 1   
   118   108   109 1   
   119   112   113 1   
   120   113   114 1   
   121   113   118 1   
   122   113   119 1   
   123   114   115 1   
   124   114   116 1   
   125   114   117 1   
   126   119   120 1   
   127   119   121 1   
   128   121   122 1   
   129   122   123 1   
   130   122   124 1   
   131   122   137 1   
   132   124   125 1   
   133   125   126 1   
   134   125   130 1   
   135   125   131 1   
   136   126   127 1   
   137   126   128 1   
   138   126   129 1   
   139   131   132 1   
   140   131   133 1   
   141   133   134 1   
   142   133   135 1   
   143   133   137 1   
   144   135   136 1   
   145   137   138 1   
   146   137   139 1   
   147   139   140 1   
@<TRIPOS>SUBSTRUCTURE
     1 MOL         1 TEMP              0 ****  ****    0 ROOT
