@<TRIPOS>MOLECULE
MOL
  147   154     1     0     0
SMALL
No Charge or Current Charge


@<TRIPOS>ATOM
      1 O30         -2.8850    -1.5190     2.8400 oh         1 MOL       0.000000
      2 H65         -2.8360    -0.5360     2.8500 ho         1 MOL       0.000000
      3 C1          -4.1730    -1.8960     2.3530 c3         1 MOL       0.000000
      4 H1          -4.8170    -1.0160     2.3000 h1         1 MOL       0.000000
      5 H59         -4.6220    -2.6110     3.0520 h1         1 MOL       0.000000
      6 C2          -4.0770    -2.5750     0.9790 c3         1 MOL       0.000000
      7 H2          -3.0980    -2.3220     0.5550 h1         1 MOL       0.000000
      8 O1          -4.1510    -4.0010     1.2050 os         1 MOL       0.000000
      9 C3          -3.8440    -4.7850     0.0720 c3         1 MOL       0.000000
     10 H3          -3.9290    -5.8260     0.4010 h2         1 MOL       0.000000
     11 O26         -2.5460    -4.5230    -0.4110 os         1 MOL       0.000000
     12 C4          -4.8220    -4.4960    -1.0740 c3         1 MOL       0.000000
     13 O3          -4.5100    -5.2140    -2.2530 oh         1 MOL       0.000000
     14 H4          -3.5360    -5.3060    -2.3100 ho         1 MOL       0.000000
     15 H5          -5.8200    -4.8250    -0.7590 h1         1 MOL       0.000000
     16 C5          -4.8860    -2.9890    -1.3450 c3         1 MOL       0.000000
     17 H6          -3.9110    -2.6600    -1.7370 h1         1 MOL       0.000000
     18 O4          -5.9140    -2.6840    -2.2820 oh         1 MOL       0.000000
     19 H7          -5.7960    -3.3090    -3.0190 ho         1 MOL       0.000000
     20 C6          -5.1580    -2.2130    -0.0590 c3         1 MOL       0.000000
     21 H8          -6.1520    -2.4760     0.3290 h1         1 MOL       0.000000
     22 O2          -5.1240    -0.8300    -0.4110 os         1 MOL       0.000000
     23 C9          -6.1380     0.0220     0.0720 c3         1 MOL       0.000000
     24 C10         -6.5210     0.9670    -1.0750 c3         1 MOL       0.000000
     25 C11         -5.3820     1.9570    -1.3450 c3         1 MOL       0.000000
     26 H14         -4.5180     1.3990    -1.7370 h1         1 MOL       0.000000
     27 O8          -5.7850     2.9500    -2.2820 oh         1 MOL       0.000000
     28 H15         -6.1990     2.4680    -3.0190 ho         1 MOL       0.000000
     29 O7          -6.8860     0.2750    -2.2550 oh         1 MOL       0.000000
     30 H12         -6.3510    -0.5440    -2.3110 ho         1 MOL       0.000000
     31 H13         -7.4010     1.5410    -0.7600 h1         1 MOL       0.000000
     32 H11         -7.0050    -0.5610     0.4000 h2         1 MOL       0.000000
     33 O5          -5.7170     0.7500     1.2040 os         1 MOL       0.000000
     34 C8          -4.5550     1.5810     0.9780 c3         1 MOL       0.000000
     35 C7          -4.0850     2.0800     2.3530 c3         1 MOL       0.000000
     36 H9          -3.7980     3.1320     2.3000 h1         1 MOL       0.000000
     37 H63         -4.9240     1.9850     3.0520 h1         1 MOL       0.000000
     38 O29         -2.9870     1.3080     2.8410 oh         1 MOL       0.000000
     39 H64         -2.1880     1.8820     2.8500 ho         1 MOL       0.000000
     40 H10         -3.7480     0.9730     0.5550 h1         1 MOL       0.000000
     41 C12         -4.9460     2.6520    -0.0590 c3         1 MOL       0.000000
     42 H16         -5.7720     3.2650     0.3290 h1         1 MOL       0.000000
     43 O6          -3.8440     3.4880    -0.4110 os         1 MOL       0.000000
     44 C15         -3.8090     4.8120     0.0730 c3         1 MOL       0.000000
     45 C16         -3.3100     5.7010    -1.0740 c3         1 MOL       0.000000
     46 C17         -1.8270     5.4280    -1.3450 c3         1 MOL       0.000000
     47 H22         -1.7240     4.4050    -1.7370 h1         1 MOL       0.000000
     48 O12         -1.3010     6.3630    -2.2810 oh         1 MOL       0.000000
     49 H23         -1.9370     6.3870    -3.0180 ho         1 MOL       0.000000
     50 O11         -4.0800     5.5560    -2.2530 oh         1 MOL       0.000000
     51 H20         -4.3860     4.6280    -2.3100 ho         1 MOL       0.000000
     52 H21         -3.4100     6.7470    -0.7580 h1         1 MOL       0.000000
     53 H19         -4.8060     5.1260     0.4020 h2         1 MOL       0.000000
     54 O9          -2.9770     4.9360     1.2050 os         1 MOL       0.000000
     55 C14         -1.6030     4.5460     0.9780 c3         1 MOL       0.000000
     56 C13         -0.9200     4.4880     2.3520 c3         1 MOL       0.000000
     57 H17          0.0820     4.9200     2.3000 h1         1 MOL       0.000000
     58 H58         -1.5160     5.0850     3.0520 h1         1 MOL       0.000000
     59 O35         -0.8400     3.1480     2.8400 oh         1 MOL       0.000000
     60 H70          0.1080     2.8810     2.8490 ho         1 MOL       0.000000
     61 H18         -1.5750     3.5360     0.5540 h1         1 MOL       0.000000
     62 C18         -1.0100     5.5200    -0.0580 c3         1 MOL       0.000000
     63 H24         -1.0450     6.5480     0.3290 h1         1 MOL       0.000000
     64 O10          0.3310     5.1790    -0.4110 os         1 MOL       0.000000
     65 C21          1.3870     5.9780     0.0720 c3         1 MOL       0.000000
     66 C22          2.3940     6.1420    -1.0750 c3         1 MOL       0.000000
     67 C23          3.1050     4.8120    -1.3450 c3         1 MOL       0.000000
     68 H30          2.3700     4.0930    -1.7380 h1         1 MOL       0.000000
     69 O16          4.1640     4.9840    -2.2820 oh         1 MOL       0.000000
     70 H31          3.7860     5.4950    -3.0190 ho         1 MOL       0.000000
     71 O15          1.8000     6.6530    -2.2540 oh         1 MOL       0.000000
     72 H28          0.8840     6.3130    -2.3110 ho         1 MOL       0.000000
     73 H29          3.1490     6.8720    -0.7590 h1         1 MOL       0.000000
     74 H27          1.0120     6.9540     0.4000 h2         1 MOL       0.000000
     75 O13          2.0030     5.4050     1.2040 os         1 MOL       0.000000
     76 C20          2.5550     4.0880     0.9780 c3         1 MOL       0.000000
     77 C19          2.9360     3.5180     2.3520 c3         1 MOL       0.000000
     78 H25          3.8980     3.0040     2.2990 h1         1 MOL       0.000000
     79 H57          3.0300     4.3560     3.0520 h1         1 MOL       0.000000
     80 O34          1.9390     2.6190     2.8390 oh         1 MOL       0.000000
     81 H69          2.3210     1.7120     2.8490 ho         1 MOL       0.000000
     82 H26          1.7830     3.4360     0.5540 h1         1 MOL       0.000000
     83 C24          3.6860     4.2310    -0.0590 c3         1 MOL       0.000000
     84 H32          4.4680     4.8990     0.3290 h1         1 MOL       0.000000
     85 O14          4.2560     2.9710    -0.4110 os         1 MOL       0.000000
     86 C27          5.5390     2.6430     0.0720 c3         1 MOL       0.000000
     87 C28          6.2950     1.9580    -1.0740 c3         1 MOL       0.000000
     88 C29          5.7000     0.5730    -1.3450 c3         1 MOL       0.000000
     89 H38          4.6790     0.7000    -1.7370 h1         1 MOL       0.000000
     90 O20          6.4940    -0.1480    -2.2810 oh         1 MOL       0.000000
     91 H39          6.6590     0.4670    -3.0180 ho         1 MOL       0.000000
     92 O19          6.3250     2.7410    -2.2530 oh         1 MOL       0.000000
     93 H36          5.4880     3.2460    -2.3100 ho         1 MOL       0.000000
     94 H37          7.3370     1.8230    -0.7580 h1         1 MOL       0.000000
     95 H35          6.0680     3.5450     0.4010 h2         1 MOL       0.000000
     96 O17          5.4750     1.8040     1.2050 os         1 MOL       0.000000
     97 C26          4.7900     0.5510     0.9790 c3         1 MOL       0.000000
     98 C25          4.5830    -0.1020     2.3530 c3         1 MOL       0.000000
     99 H33          4.7810    -1.1740     2.3000 h1         1 MOL       0.000000
    100 H62          5.2970     0.3470     3.0520 h1         1 MOL       0.000000
    101 O33          3.2580     0.1170     2.8410 oh         1 MOL       0.000000
    102 H68          2.7880    -0.7470     2.8490 ho         1 MOL       0.000000
    103 H34          3.7990     0.7480     0.5550 h1         1 MOL       0.000000
    104 C30          5.6070    -0.2440    -0.0580 c3         1 MOL       0.000000
    105 H40          6.6170    -0.4380     0.3290 h1         1 MOL       0.000000
    106 O18          4.9770    -1.4750    -0.4110 os         1 MOL       0.000000
    107 C33          5.5210    -2.6830     0.0730 c3         1 MOL       0.000000
    108 C34          5.4560    -3.7000    -1.0740 c3         1 MOL       0.000000
    109 C35          4.0010    -4.0980    -1.3450 c3         1 MOL       0.000000
    110 H46          3.4640    -3.2200    -1.7370 h1         1 MOL       0.000000
    111 O24          3.9330    -5.1680    -2.2820 oh         1 MOL       0.000000
    112 H47          4.5160    -4.9140    -3.0180 ho         1 MOL       0.000000
    113 O23          6.0870    -3.2360    -2.2530 oh         1 MOL       0.000000
    114 H44          5.9600    -2.2670    -2.3100 ho         1 MOL       0.000000
    115 H45          5.9990    -4.6000    -0.7590 h1         1 MOL       0.000000
    116 H43          6.5550    -2.5340     0.4010 h2         1 MOL       0.000000
    117 O21          4.8240    -3.1560     1.2050 os         1 MOL       0.000000
    118 C32          3.4180    -3.4000     0.9780 c3         1 MOL       0.000000
    119 C31          2.7770    -3.6450     2.3520 c3         1 MOL       0.000000
    120 H41          2.0620    -4.4680     2.2990 h1         1 MOL       0.000000
    121 H61          3.5730    -3.9230     3.0520 h1         1 MOL       0.000000
    122 O32          2.1230    -2.4720     2.8400 oh         1 MOL       0.000000
    123 H67          1.1530    -2.6430     2.8490 ho         1 MOL       0.000000
    124 H42          2.9540    -2.5020     0.5540 h1         1 MOL       0.000000
    125 C36          3.3050    -4.5350    -0.0580 c3         1 MOL       0.000000
    126 H48          3.7830    -5.4460     0.3290 h1         1 MOL       0.000000
    127 O22          1.9500    -4.8100    -0.4110 os         1 MOL       0.000000
    128 C39          1.3440    -5.9880     0.0720 c3         1 MOL       0.000000
    129 H51          2.1050    -6.7040     0.4000 h2         1 MOL       0.000000
    130 O25          0.5400    -5.7390     1.2050 os         1 MOL       0.000000
    131 C38         -0.5280    -4.7920     0.9780 c3         1 MOL       0.000000
    132 C37         -1.1190    -4.4430     2.3520 c3         1 MOL       0.000000
    133 H49         -2.2080    -4.3980     2.3000 h1         1 MOL       0.000000
    134 H60         -0.8390    -5.2390     3.0520 h1         1 MOL       0.000000
    135 O31         -0.6100    -3.2000     2.8400 oh         1 MOL       0.000000
    136 H66         -1.3490    -2.5490     2.8480 ho         1 MOL       0.000000
    137 H50         -0.1160    -3.8690     0.5540 h1         1 MOL       0.000000
    138 C42         -1.4860    -5.4110    -0.0590 c3         1 MOL       0.000000
    139 H56         -1.8990    -6.3530     0.3290 h1         1 MOL       0.000000
    140 C41         -0.7100    -5.6820    -1.3450 c3         1 MOL       0.000000
    141 H54         -0.3590    -4.7160    -1.7370 h1         1 MOL       0.000000
    142 O28         -1.5890    -6.2960    -2.2820 oh         1 MOL       0.000000
    143 H55         -1.0270    -6.5930    -3.0190 ho         1 MOL       0.000000
    144 C40          0.5090    -6.5720    -1.0750 c3         1 MOL       0.000000
    145 H53          0.1440    -7.5570    -0.7600 h1         1 MOL       0.000000
    146 O27          1.2650    -6.7750    -2.2540 oh         1 MOL       0.000000
    147 H52          1.9430    -6.0710    -2.3100 ho         1 MOL       0.000000
@<TRIPOS>BOND
     1     1     2 1   
     2     1     3 1   
     3     3     4 1   
     4     3     5 1   
     5     3     6 1   
     6     6     7 1   
     7     6     8 1   
     8     6    20 1   
     9     8     9 1   
    10     9    10 1   
    11     9    11 1   
    12     9    12 1   
    13    11   138 1   
    14    12    13 1   
    15    12    15 1   
    16    12    16 1   
    17    13    14 1   
    18    16    17 1   
    19    16    18 1   
    20    16    20 1   
    21    18    19 1   
    22    20    21 1   
    23    20    22 1   
    24    22    23 1   
    25    23    24 1   
    26    23    32 1   
    27    23    33 1   
    28    24    25 1   
    29    24    29 1   
    30    24    31 1   
    31    25    26 1   
    32    25    27 1   
    33    25    41 1   
    34    27    28 1   
    35    29    30 1   
    36    33    34 1   
    37    34    35 1   
    38    34    40 1   
    39    34    41 1   
    40    35    36 1   
    41    35    37 1   
    42    35    38 1   
    43    38    39 1   
    44    41    42 1   
    45    41    43 1   
    46    43    44 1   
    47    44    45 1   
    48    44    53 1   
    49    44    54 1   
    50    45    46 1   
    51    45    50 1   
    52    45    52 1   
    53    46    47 1   
    54    46    48 1   
    55    46    62 1   
    56    48    49 1   
    57    50    51 1   
    58    54    55 1   
    59    55    56 1   
    60    55    61 1   
    61    55    62 1   
    62    56    57 1   
    63    56    58 1   
    64    56    59 1   
    65    59    60 1   
    66    62    63 1   
    67    62    64 1   
    68    64    65 1   
    69    65    66 1   
    70    65    74 1   
    71    65    75 1   
    72    66    67 1   
    73    66    71 1   
    74    66    73 1   
    75    67    68 1   
    76    67    69 1   
    77    67    83 1   
    78    69    70 1   
    79    71    72 1   
    80    75    76 1   
    81    76    77 1   
    82    76    82 1   
    83    76    83 1   
    84    77    78 1   
    85    77    79 1   
    86    77    80 1   
    87    80    81 1   
    88    83    84 1   
    89    83    85 1   
    90    85    86 1   
    91    86    87 1   
    92    86    95 1   
    93    86    96 1   
    94    87    88 1   
    95    87    92 1   
    96    87    94 1   
    97    88    89 1   
    98    88    90 1   
    99    88   104 1   
   100    90    91 1   
   101    92    93 1   
   102    96    97 1   
   103    97    98 1   
   104    97   103 1   
   105    97   104 1   
   106    98    99 1   
   107    98   100 1   
   108    98   101 1   
   109   101   102 1   
   110   104   105 1   
   111   104   106 1   
   112   106   107 1   
   113   107   108 1   
   114   107   116 1   
   115   107   117 1   
   116   108   109 1   
   117   108   113 1   
   118   108   115 1   
   119   109   110 1   
   120   109   111 1   
   121   109   125 1   
   122   111   112 1   
   123   113   114 1   
   124   117   118 1   
   125   118   119 1   
   126   118   124 1   
   127   118   125 1   
   128   119   120 1   
   129   119   121 1   
   130   119   122 1   
   131   122   123 1   
   132   125   126 1   
   133   125   127 1   
   134   127   128 1   
   135   128   129 1   
   136   128   130 1   
   137   128   144 1   
   138   130   131 1   
   139   131   132 1   
   140   131   137 1   
   141   131   138 1   
   142   132   133 1   
   143   132   134 1   
   144   132   135 1   
   145   135   136 1   
   146   138   139 1   
   147   138   140 1   
   148   140   141 1   
   149   140   142 1   
   150   140   144 1   
   151   142   143 1   
   152   144   145 1   
   153   144   146 1   
   154   146   147 1   
@<TRIPOS>SUBSTRUCTURE
     1 MOL         1 TEMP              0 ****  ****    0 ROOT
